<?xml version="1.0" encoding="UTF-8"?>

<!-- generated on 2026-04-11T18:34:01.385983+05:30 by Eclipse SUMO netedit 1.26.0
<neteditConfiguration xmlns:xsi="http://www.w3.org/2001/XMLSchema-instance" xsi:noNamespaceSchemaLocation="http://sumo.dlr.de/xsd/neteditConfiguration.xsd">

    <input>
        <sumo-net-file value="F:\Ainesh\SUMO\Indian_Traffic\peeragarhi_clean.net.xml"/>
    </input>

    <output>
        <output-file value="F:\Ainesh\SUMO\Indian_Traffic\peeragarhi_clean.net.xml"/>
    </output>

    <processing>
        <geometry.min-radius.fix.railways value="false"/>
        <geometry.avoid-overlap value="false"/>
        <geometry.max-grade.fix value="false"/>
        <offset.disable-normalization value="true"/>
        <lefthand value="1"/>
    </processing>

    <junctions>
        <no-turnarounds value="true"/>
        <junctions.corner-detail value="10"/>
        <junctions.limit-turn-speed value="5.50"/>
        <rectangular-lane-cut value="0"/>
    </junctions>

    <pedestrian>
        <walkingareas value="0"/>
    </pedestrian>

</neteditConfiguration>
-->

<net version="1.20" junctionCornerDetail="10" lefthand="true" limitTurnSpeed="5.50" avoidOverlap="0" xmlns:xsi="http://www.w3.org/2001/XMLSchema-instance" xsi:noNamespaceSchemaLocation="http://sumo.dlr.de/xsd/net_file.xsd">

    <location netOffset="-702898.68,-3173165.47" convBoundary="1339.95,928.04,2329.56,1496.82" origBoundary="76.919144,28.650457,77.159341,28.697394" projParameter="+proj=utm +zone=43 +ellps=WGS84 +datum=WGS84 +units=m +no_defs"/>

    <type id="highway.primary" priority="12" numLanes="2" speed="27.78" disallow="tram rail_urban rail rail_electric rail_fast ship container cable_car subway aircraft wheelchair scooter drone" oneway="0"/>
    <type id="highway.trunk" priority="13" numLanes="2" speed="27.78" disallow="pedestrian bicycle tram rail_urban rail rail_electric rail_fast ship container cable_car subway aircraft wheelchair scooter drone" oneway="0"/>

    <edge id=":602468633_0" function="internal">
        <lane id=":602468633_0_0" index="0" disallow="tram rail_urban rail rail_electric rail_fast ship container cable_car subway aircraft wheelchair scooter drone" speed="13.89" length="0.10" shape="1796.49,1093.52 1796.49,1093.52"/>
        <lane id=":602468633_0_1" index="1" disallow="tram rail_urban rail rail_electric rail_fast ship container cable_car subway aircraft wheelchair scooter drone" speed="13.89" length="0.10" shape="1796.87,1096.70 1796.87,1096.70"/>
    </edge>
    <edge id=":913534701_0" function="internal">
        <lane id=":913534701_0_0" index="0" speed="8.51" length="7.49" shape="1751.98,1163.08 1753.98,1164.49 1755.46,1165.87 1756.42,1167.21 1756.85,1168.51"/>
        <lane id=":913534701_0_1" index="1" speed="9.53" length="9.51" shape="1751.98,1163.08 1753.58,1163.94 1756.27,1165.40 1758.83,1166.95 1760.02,1168.07"/>
    </edge>
    <edge id=":913534701_2" function="internal">
        <lane id=":913534701_2_0" index="0" disallow="pedestrian bicycle tram rail_urban rail rail_electric rail_fast ship container cable_car subway aircraft wheelchair scooter drone" speed="20.84" length="7.96" shape="1755.71,1160.65 1756.85,1168.51"/>
        <lane id=":913534701_2_1" index="1" disallow="pedestrian bicycle tram rail_urban rail rail_electric rail_fast ship container cable_car subway aircraft wheelchair scooter drone" speed="20.84" length="7.96" shape="1758.88,1160.18 1760.02,1168.07"/>
    </edge>
    <edge id=":913534857_0" function="internal">
        <lane id=":913534857_0_0" index="0" speed="12.10" length="8.62" shape="1840.19,1088.19 1837.73,1088.22 1836.09,1087.67 1834.53,1086.67 1832.32,1085.34"/>
    </edge>
    <edge id=":913534857_1" function="internal">
        <lane id=":913534857_1_0" index="0" disallow="tram rail_urban rail rail_electric rail_fast ship container cable_car subway aircraft wheelchair scooter drone" speed="13.89" length="8.63" shape="1840.19,1088.19 1831.62,1089.22"/>
        <lane id=":913534857_1_1" index="1" disallow="tram rail_urban rail rail_electric rail_fast ship container cable_car subway aircraft wheelchair scooter drone" speed="13.89" length="8.63" shape="1840.56,1091.37 1832.01,1092.40"/>
    </edge>
    <edge id=":913534893_0" function="internal">
        <lane id=":913534893_0_0" index="0" disallow="pedestrian bicycle tram rail_urban rail rail_electric rail_fast ship container cable_car subway aircraft wheelchair scooter drone" speed="13.89" length="14.40" shape="1788.62,1094.49 1774.32,1096.27"/>
        <lane id=":913534893_0_1" index="1" disallow="pedestrian bicycle tram rail_urban rail rail_electric rail_fast ship container cable_car subway aircraft wheelchair scooter drone" speed="13.89" length="14.40" shape="1789.01,1097.66 1774.73,1099.45"/>
    </edge>
    <edge id=":913534893_2" function="internal">
        <lane id=":913534893_2_0" index="0" disallow="pedestrian bicycle tram rail_urban rail rail_electric rail_fast ship container cable_car subway aircraft wheelchair scooter drone" speed="8.01" length="14.19" shape="1784.17,1103.90 1783.13,1100.14 1781.14,1097.62 1778.20,1096.33 1774.32,1096.27"/>
        <lane id=":913534893_2_1" index="1" disallow="pedestrian bicycle tram rail_urban rail rail_electric rail_fast ship container cable_car subway aircraft wheelchair scooter drone" speed="6.52" length="9.04" shape="1780.99,1104.31 1780.33,1101.92 1779.07,1100.31 1777.20,1099.49 1774.73,1099.45"/>
    </edge>
    <edge id=":913534987_0" function="internal">
        <lane id=":913534987_0_0" index="0" disallow="pedestrian bicycle tram rail_urban rail rail_electric rail_fast ship container cable_car subway aircraft wheelchair scooter drone" speed="8.08" length="13.85" shape="1745.18,1126.57 1748.99,1126.75 1751.89,1128.05 1753.88,1130.48 1754.96,1134.04"/>
    </edge>
    <edge id=":913534987_1" function="internal">
        <lane id=":913534987_1_0" index="0" disallow="pedestrian bicycle tram rail_urban rail rail_electric rail_fast ship container cable_car subway aircraft wheelchair scooter drone" speed="13.89" length="14.44" shape="1745.18,1126.57 1749.53,1126.66 1752.52,1127.41 1755.49,1128.01 1759.77,1127.68"/>
        <lane id=":913534987_1_1" index="1" disallow="pedestrian bicycle tram rail_urban rail rail_electric rail_fast ship container cable_car subway aircraft wheelchair scooter drone" speed="13.89" length="14.44" shape="1745.18,1126.57 1749.35,1126.18 1752.20,1125.83 1755.03,1125.35 1759.15,1124.54"/>
    </edge>
    <edge id=":913534987_3" function="internal">
        <lane id=":913534987_3_0" index="0" disallow="pedestrian bicycle tram rail_urban rail rail_electric rail_fast ship container cable_car subway aircraft wheelchair scooter drone" speed="27.78" length="14.07" shape="1749.92,1120.52 1751.79,1134.51"/>
        <lane id=":913534987_3_1" index="1" disallow="pedestrian bicycle tram rail_urban rail rail_electric rail_fast ship container cable_car subway aircraft wheelchair scooter drone" speed="27.78" length="14.07" shape="1753.10,1120.14 1754.96,1134.04"/>
    </edge>
    <edge id=":913534987_5" function="internal">
        <lane id=":913534987_5_0" index="0" disallow="pedestrian bicycle tram rail_urban rail rail_electric rail_fast ship container cable_car subway aircraft wheelchair scooter drone" speed="6.23" length="8.69" shape="1753.10,1120.14 1753.72,1122.47 1754.93,1123.98 1756.74,1124.67 1759.15,1124.54"/>
    </edge>
    <edge id=":913535023_0" function="internal">
        <lane id=":913535023_0_0" index="0" speed="10.86" length="8.33" shape="1702.33,1133.03 1704.69,1133.06 1706.24,1133.67 1707.68,1134.75 1709.70,1136.21"/>
    </edge>
    <edge id=":913535023_1" function="internal">
        <lane id=":913535023_1_0" index="0" disallow="pedestrian bicycle tram rail_urban rail rail_electric rail_fast ship container cable_car subway aircraft wheelchair scooter drone" speed="13.89" length="8.42" shape="1702.33,1133.03 1710.67,1132.36"/>
        <lane id=":913535023_1_1" index="1" disallow="pedestrian bicycle tram rail_urban rail rail_electric rail_fast ship container cable_car subway aircraft wheelchair scooter drone" speed="13.89" length="8.42" shape="1702.01,1129.85 1710.44,1129.16"/>
    </edge>
    <edge id=":913535348_0" function="internal">
        <lane id=":913535348_0_0" index="0" speed="10.42" length="9.24" shape="1712.81,1100.38 1711.22,1102.21 1710.08,1103.55 1708.73,1104.45 1706.49,1104.95"/>
        <lane id=":913535348_0_1" index="1" speed="11.74" length="9.24" shape="1712.81,1100.38 1711.12,1102.99 1710.37,1105.37 1709.34,1107.19 1706.84,1108.14"/>
    </edge>
    <edge id=":913535348_2" function="internal">
        <lane id=":913535348_2_0" index="0" disallow="pedestrian bicycle tram rail_urban rail rail_electric rail_fast ship container cable_car subway aircraft wheelchair scooter drone" speed="13.89" length="8.20" shape="1714.60,1103.96 1706.49,1104.95"/>
        <lane id=":913535348_2_1" index="1" disallow="pedestrian bicycle tram rail_urban rail rail_electric rail_fast ship container cable_car subway aircraft wheelchair scooter drone" speed="13.89" length="8.20" shape="1715.01,1107.14 1706.84,1108.14"/>
    </edge>
    <edge id=":913535543_0" function="internal">
        <lane id=":913535543_0_0" index="0" disallow="pedestrian bicycle tram rail_urban rail rail_electric rail_fast ship container cable_car subway aircraft wheelchair scooter drone" speed="13.89" length="0.28" shape="1741.46,1130.13 1741.77,1130.10"/>
        <lane id=":913535543_0_1" index="1" disallow="pedestrian bicycle tram rail_urban rail rail_electric rail_fast ship container cable_car subway aircraft wheelchair scooter drone" speed="13.89" length="0.28" shape="1741.22,1126.93 1741.47,1126.91"/>
    </edge>
    <edge id=":913535601_0" function="internal">
        <lane id=":913535601_0_0" index="0" disallow="pedestrian bicycle tram rail_urban rail rail_electric rail_fast ship container cable_car subway aircraft wheelchair scooter drone" speed="27.78" length="0.30" shape="1787.74,1130.48 1787.69,1130.19"/>
        <lane id=":913535601_0_1" index="1" disallow="pedestrian bicycle tram rail_urban rail rail_electric rail_fast ship container cable_car subway aircraft wheelchair scooter drone" speed="27.78" length="0.30" shape="1784.57,1130.94 1784.52,1130.64"/>
    </edge>
    <edge id=":913535671_0" function="internal">
        <lane id=":913535671_0_0" index="0" speed="8.78" length="7.45" shape="1840.91,1120.01 1842.45,1118.08 1843.89,1116.66 1845.25,1115.74 1846.51,1115.34"/>
        <lane id=":913535671_0_1" index="1" speed="9.83" length="9.46" shape="1840.91,1120.01 1841.84,1118.46 1843.37,1115.83 1844.98,1113.33 1846.13,1112.17"/>
    </edge>
    <edge id=":913535671_2" function="internal">
        <lane id=":913535671_2_0" index="0" disallow="tram rail_urban rail rail_electric rail_fast ship container cable_car subway aircraft wheelchair scooter drone" speed="13.89" length="7.85" shape="1838.71,1116.27 1846.51,1115.34"/>
        <lane id=":913535671_2_1" index="1" disallow="tram rail_urban rail rail_electric rail_fast ship container cable_car subway aircraft wheelchair scooter drone" speed="13.89" length="7.85" shape="1838.34,1113.10 1846.13,1112.17"/>
    </edge>
    <edge id=":913535792_0" function="internal">
        <lane id=":913535792_0_0" index="0" speed="9.40" length="7.72" shape="1795.61,1185.41 1795.54,1183.24 1796.07,1181.78 1797.11,1180.46 1798.55,1178.65"/>
    </edge>
    <edge id=":913535792_1" function="internal">
        <lane id=":913535792_1_0" index="0" disallow="pedestrian bicycle tram rail_urban rail rail_electric rail_fast ship container cable_car subway aircraft wheelchair scooter drone" speed="20.84" length="7.84" shape="1795.61,1185.41 1794.50,1177.65"/>
        <lane id=":913535792_1_1" index="1" disallow="pedestrian bicycle tram rail_urban rail rail_electric rail_fast ship container cable_car subway aircraft wheelchair scooter drone" speed="20.84" length="7.84" shape="1792.44,1185.87 1791.33,1178.11"/>
    </edge>
    <edge id=":913536062_0" function="internal">
        <lane id=":913536062_0_0" index="0" disallow="pedestrian bicycle tram rail_urban rail rail_electric rail_fast ship container cable_car subway aircraft wheelchair scooter drone" speed="27.78" length="14.55" shape="1787.41,1128.16 1785.45,1113.76"/>
        <lane id=":913536062_0_1" index="1" disallow="pedestrian bicycle tram rail_urban rail rail_electric rail_fast ship container cable_car subway aircraft wheelchair scooter drone" speed="27.78" length="14.55" shape="1784.24,1128.61 1782.28,1114.17"/>
    </edge>
    <edge id=":913536062_2" function="internal">
        <lane id=":913536062_2_0" index="0" disallow="pedestrian bicycle tram rail_urban rail rail_electric rail_fast ship container cable_car subway aircraft wheelchair scooter drone" speed="13.89" length="14.64" shape="1777.86,1124.08 1792.20,1121.80"/>
        <lane id=":913536062_2_1" index="1" disallow="pedestrian bicycle tram rail_urban rail rail_electric rail_fast ship container cable_car subway aircraft wheelchair scooter drone" speed="13.89" length="14.64" shape="1777.24,1120.94 1791.82,1118.62"/>
    </edge>
    <edge id=":913536062_4" function="internal">
        <lane id=":913536062_4_0" index="0" disallow="pedestrian bicycle tram rail_urban rail rail_electric rail_fast ship container cable_car subway aircraft wheelchair scooter drone" speed="6.81" length="9.49" shape="1777.24,1120.94 1779.72,1120.09 1781.38,1118.67 1782.24,1116.70 1782.28,1114.17"/>
    </edge>
    <edge id=":9913665014_0" function="internal">
        <lane id=":9913665014_0_0" index="0" disallow="pedestrian bicycle tram rail_urban rail rail_electric rail_fast ship container cable_car subway aircraft wheelchair scooter drone" speed="13.89" length="14.34" shape="1756.10,1098.60 1741.88,1100.43"/>
        <lane id=":9913665014_0_1" index="1" disallow="pedestrian bicycle tram rail_urban rail rail_electric rail_fast ship container cable_car subway aircraft wheelchair scooter drone" speed="13.89" length="14.34" shape="1756.51,1101.77 1742.30,1103.61"/>
    </edge>
    <edge id=":9913665014_2" function="internal">
        <lane id=":9913665014_2_0" index="0" disallow="pedestrian bicycle tram rail_urban rail rail_electric rail_fast ship container cable_car subway aircraft wheelchair scooter drone" speed="7.34" length="11.70" shape="1756.51,1101.77 1752.75,1102.60 1750.16,1103.99 1748.74,1105.93 1748.49,1108.43"/>
        <lane id=":9913665014_2_1" index="1" disallow="pedestrian bicycle tram rail_urban rail rail_electric rail_fast ship container cable_car subway aircraft wheelchair scooter drone" speed="6.53" length="9.03" shape="1756.51,1101.77 1754.14,1102.43 1752.55,1103.69 1751.72,1105.57 1751.67,1108.05"/>
    </edge>
    <edge id=":J2_0" function="internal">
        <lane id=":J2_0_0" index="0" disallow="tram rail_urban rail rail_electric rail_fast ship container cable_car subway aircraft wheelchair scooter drone" speed="8.25" length="7.46" shape="1755.47,1053.60 1755.40,1055.01 1754.83,1056.56 1753.75,1058.24 1752.17,1060.05"/>
    </edge>
    <edge id=":J2_1" function="internal">
        <lane id=":J2_1_0" index="0" disallow="tram rail_urban rail rail_electric rail_fast ship container cable_car subway aircraft wheelchair scooter drone" speed="15.28" length="7.96" shape="1755.47,1053.60 1756.52,1061.49"/>
        <lane id=":J2_1_1" index="1" disallow="tram rail_urban rail rail_electric rail_fast ship container cable_car subway aircraft wheelchair scooter drone" speed="15.28" length="7.96" shape="1758.64,1053.17 1759.69,1061.07"/>
    </edge>
    <edge id=":J3_0" function="internal">
        <lane id=":J3_0_0" index="0" speed="9.56" length="1.21" shape="1832.65,1446.66 1832.77,1446.13 1832.82,1445.76 1832.81,1445.39 1832.74,1444.86"/>
        <lane id=":J3_0_1" index="1" speed="13.89" length="1.21" shape="1829.54,1445.91 1829.58,1445.74 1829.60,1445.61 1829.59,1445.49 1829.57,1445.31"/>
    </edge>
    <edge id=":J4_0" function="internal">
        <lane id=":J4_0_0" index="0" disallow="tram rail_urban rail rail_electric rail_fast ship container cable_car subway aircraft wheelchair scooter drone" speed="7.97" length="7.50" shape="1775.12,1055.45 1773.09,1054.22 1771.59,1052.93 1770.61,1051.58 1770.16,1050.17"/>
        <lane id=":J4_0_1" index="1" disallow="tram rail_urban rail rail_electric rail_fast ship container cable_car subway aircraft wheelchair scooter drone" speed="8.92" length="9.52" shape="1775.12,1055.45 1773.49,1054.63 1770.77,1053.22 1768.19,1051.70 1766.99,1050.59"/>
    </edge>
    <edge id=":J4_2" function="internal">
        <lane id=":J4_2_0" index="0" disallow="tram rail_urban rail rail_electric rail_fast ship container cable_car subway aircraft wheelchair scooter drone" speed="15.28" length="8.08" shape="1771.22,1058.18 1770.16,1050.17"/>
        <lane id=":J4_2_1" index="1" disallow="tram rail_urban rail rail_electric rail_fast ship container cable_car subway aircraft wheelchair scooter drone" speed="15.28" length="8.08" shape="1768.05,1058.61 1766.99,1050.59"/>
    </edge>
    <edge id=":J5_0" function="internal">
        <lane id=":J5_0_0" index="0" speed="13.89" length="20.31" shape="1826.95,1472.96 1826.88,1467.06 1827.79,1463.04 1829.31,1459.07 1831.07,1453.29"/>
        <lane id=":J5_0_1" index="1" speed="13.89" length="20.60" shape="1826.95,1472.96 1826.39,1466.94 1826.23,1462.67 1826.69,1458.44 1827.96,1452.55"/>
    </edge>
    <edge id=":J5_2" function="internal">
        <lane id=":J5_2_0" index="0" speed="13.89" length="20.71" shape="1826.95,1472.96 1824.26,1452.36"/>
        <lane id=":J5_2_1" index="1" speed="13.89" length="20.71" shape="1823.76,1473.26 1821.09,1452.79"/>
    </edge>

    <edge id="1013996162#0" from="913534857" to="602468633" priority="12" type="highway.primary" spreadType="center">
        <lane id="1013996162#0_0" index="0" disallow="tram rail_urban rail rail_electric rail_fast ship container cable_car subway aircraft wheelchair scooter drone" speed="13.89" length="35.39" shape="1831.62,1089.22 1796.49,1093.52"/>
        <lane id="1013996162#0_1" index="1" disallow="tram rail_urban rail rail_electric rail_fast ship container cable_car subway aircraft wheelchair scooter drone" speed="13.89" length="35.39" shape="1832.01,1092.40 1796.87,1096.70"/>
        <param key="ref" value="NH9"/>
    </edge>
    <edge id="1013996162#1" from="602468633" to="913534893" priority="12" type="highway.primary" spreadType="center">
        <lane id="1013996162#1_0" index="0" disallow="tram rail_urban rail rail_electric rail_fast ship container cable_car subway aircraft wheelchair scooter drone" speed="13.89" length="7.93" shape="1796.49,1093.52 1788.62,1094.49"/>
        <lane id="1013996162#1_1" index="1" disallow="tram rail_urban rail rail_electric rail_fast ship container cable_car subway aircraft wheelchair scooter drone" speed="13.89" length="7.93" shape="1796.87,1096.70 1789.01,1097.66"/>
        <param key="ref" value="NH9"/>
    </edge>
    <edge id="1013996163" from="9913665014" to="913534987" priority="13" type="highway.trunk" spreadType="center">
        <lane id="1013996163_0" index="0" disallow="pedestrian bicycle tram rail_urban rail rail_electric rail_fast ship container cable_car subway aircraft wheelchair scooter drone" speed="27.78" length="12.18" shape="1748.49,1108.43 1749.92,1120.52"/>
        <lane id="1013996163_1" index="1" disallow="pedestrian bicycle tram rail_urban rail rail_electric rail_fast ship container cable_car subway aircraft wheelchair scooter drone" speed="27.78" length="12.18" shape="1751.67,1108.05 1753.10,1120.14"/>
    </edge>
    <edge id="1013996164" from="913536062" to="913535671" priority="12" type="highway.primary" spreadType="center">
        <lane id="1013996164_0" index="0" disallow="tram rail_urban rail rail_electric rail_fast ship container cable_car subway aircraft wheelchair scooter drone" speed="13.89" length="46.84" shape="1792.20,1121.80 1838.71,1116.27"/>
        <lane id="1013996164_1" index="1" disallow="tram rail_urban rail rail_electric rail_fast ship container cable_car subway aircraft wheelchair scooter drone" speed="13.89" length="46.84" shape="1791.82,1118.62 1838.34,1113.10"/>
        <param key="ref" value="NH9"/>
    </edge>
    <edge id="1446379669#0" from="913535792" to="913535601" priority="13" type="highway.trunk" spreadType="center" shape="1793.61,1182.76 1788.43,1146.55 1786.13,1130.56">
        <lane id="1446379669#0_0" index="0" disallow="pedestrian bicycle tram rail_urban rail rail_electric rail_fast ship container cable_car subway aircraft wheelchair scooter drone" speed="27.78" length="47.65" shape="1794.50,1177.65 1790.01,1146.32 1787.74,1130.48"/>
        <lane id="1446379669#0_1" index="1" disallow="pedestrian bicycle tram rail_urban rail rail_electric rail_fast ship container cable_car subway aircraft wheelchair scooter drone" speed="27.78" length="47.65" shape="1791.33,1178.11 1786.85,1146.78 1784.57,1130.94"/>
        <param key="ref" value="NH9"/>
    </edge>
    <edge id="1446379669#1" from="913535601" to="913536062" priority="13" type="highway.trunk" spreadType="center">
        <lane id="1446379669#1_0" index="0" disallow="pedestrian bicycle tram rail_urban rail rail_electric rail_fast ship container cable_car subway aircraft wheelchair scooter drone" speed="27.78" length="2.05" shape="1787.69,1130.19 1787.41,1128.16"/>
        <lane id="1446379669#1_1" index="1" disallow="pedestrian bicycle tram rail_urban rail rail_electric rail_fast ship container cable_car subway aircraft wheelchair scooter drone" speed="27.78" length="2.05" shape="1784.52,1130.64 1784.24,1128.61"/>
        <param key="ref" value="NH9"/>
    </edge>
    <edge id="1463747346" from="913534893" to="9913665014" priority="13" type="highway.trunk" spreadType="center">
        <lane id="1463747346_0" index="0" disallow="pedestrian bicycle tram rail_urban rail rail_electric rail_fast ship container cable_car subway aircraft wheelchair scooter drone" speed="13.89" length="18.37" shape="1774.32,1096.27 1756.10,1098.60"/>
        <lane id="1463747346_1" index="1" disallow="pedestrian bicycle tram rail_urban rail rail_electric rail_fast ship container cable_car subway aircraft wheelchair scooter drone" speed="13.89" length="18.37" shape="1774.73,1099.45 1756.51,1101.77"/>
        <param key="ref" value="NH9"/>
    </edge>
    <edge id="1492081914" from="913534987" to="913536062" priority="13" type="highway.trunk" spreadType="center">
        <lane id="1492081914_0" index="0" disallow="pedestrian bicycle tram rail_urban rail rail_electric rail_fast ship container cable_car subway aircraft wheelchair scooter drone" speed="13.89" length="18.44" shape="1759.77,1127.68 1777.86,1124.08"/>
        <lane id="1492081914_1" index="1" disallow="pedestrian bicycle tram rail_urban rail rail_electric rail_fast ship container cable_car subway aircraft wheelchair scooter drone" speed="13.89" length="18.44" shape="1759.15,1124.54 1777.24,1120.94"/>
        <param key="ref" value="NH9"/>
    </edge>
    <edge id="1492081915" from="913536062" to="913534893" priority="13" type="highway.trunk" spreadType="center">
        <lane id="1492081915_0" index="0" disallow="pedestrian bicycle tram rail_urban rail rail_electric rail_fast ship container cable_car subway aircraft wheelchair scooter drone" speed="27.78" length="9.94" shape="1785.45,1113.76 1784.17,1103.90"/>
        <lane id="1492081915_1" index="1" disallow="pedestrian bicycle tram rail_urban rail rail_electric rail_fast ship container cable_car subway aircraft wheelchair scooter drone" speed="27.78" length="9.94" shape="1782.28,1114.17 1780.99,1104.31"/>
        <param key="ref" value="NH9"/>
    </edge>
    <edge id="171505928#10" from="913535023" to="913535543" priority="13" type="highway.trunk" spreadType="center">
        <lane id="171505928#10_0" index="0" disallow="pedestrian bicycle tram rail_urban rail rail_electric rail_fast ship container cable_car subway aircraft wheelchair scooter drone" speed="13.89" length="30.86" shape="1710.67,1132.36 1741.46,1130.13"/>
        <lane id="171505928#10_1" index="1" disallow="pedestrian bicycle tram rail_urban rail rail_electric rail_fast ship container cable_car subway aircraft wheelchair scooter drone" speed="13.89" length="30.86" shape="1710.44,1129.16 1741.22,1126.93"/>
        <param key="ref" value="NH9"/>
    </edge>
    <edge id="171505928#11" from="913535543" to="913534987" priority="13" type="highway.trunk" spreadType="center">
        <lane id="171505928#11_0" index="0" disallow="pedestrian bicycle tram rail_urban rail rail_electric rail_fast ship container cable_car subway aircraft wheelchair scooter drone" speed="13.89" length="3.72" shape="1741.77,1130.10 1745.47,1129.76"/>
        <lane id="171505928#11_1" index="1" disallow="pedestrian bicycle tram rail_urban rail rail_electric rail_fast ship container cable_car subway aircraft wheelchair scooter drone" speed="13.89" length="3.72" shape="1741.47,1126.91 1745.18,1126.57"/>
        <param key="ref" value="NH9"/>
    </edge>
    <edge id="198065394#0" from="9913665014" to="913535348" priority="13" type="highway.trunk" spreadType="center" shape="1749.23,1101.09 1737.39,1102.63 1709.30,1106.26">
        <lane id="198065394#0_0" index="0" disallow="pedestrian bicycle tram rail_urban rail rail_electric rail_fast ship container cable_car subway aircraft wheelchair scooter drone" speed="13.89" length="27.52" shape="1741.88,1100.43 1737.18,1101.04 1714.60,1103.96"/>
        <lane id="198065394#0_1" index="1" disallow="pedestrian bicycle tram rail_urban rail rail_electric rail_fast ship container cable_car subway aircraft wheelchair scooter drone" speed="13.89" length="27.52" shape="1742.30,1103.61 1737.60,1104.22 1715.01,1107.14"/>
        <param key="ref" value="NH9"/>
    </edge>
    <edge id="77643383.248" from="J4" to="913535701" priority="12" type="highway.primary" spreadType="center">
        <lane id="77643383.248_0" index="0" disallow="tram rail_urban rail rail_electric rail_fast ship container cable_car subway aircraft wheelchair scooter drone" speed="16.67" length="123.39" shape="1770.16,1050.17 1754.09,927.83"/>
        <lane id="77643383.248_1" index="1" disallow="tram rail_urban rail rail_electric rail_fast ship container cable_car subway aircraft wheelchair scooter drone" speed="16.67" length="123.39" shape="1766.99,1050.59 1750.91,928.25"/>
    </edge>
    <edge id="77643442#0" from="913534987" to="913534701" priority="13" type="highway.trunk" spreadType="center">
        <lane id="77643442#0_0" index="0" disallow="pedestrian bicycle tram rail_urban rail rail_electric rail_fast ship container cable_car subway aircraft wheelchair scooter drone" speed="27.78" length="26.43" shape="1751.79,1134.51 1755.71,1160.65"/>
        <lane id="77643442#0_1" index="1" disallow="pedestrian bicycle tram rail_urban rail rail_electric rail_fast ship container cable_car subway aircraft wheelchair scooter drone" speed="27.78" length="26.43" shape="1754.96,1134.04 1758.88,1160.18"/>
        <param key="ref" value="NH9"/>
    </edge>
    <edge id="77643459" from="913535049" to="J2" priority="12" type="highway.primary" spreadType="center" shape="1740.64,930.56 1752.73,1020.98 1757.52,1056.86">
        <lane id="77643459_0" index="0" disallow="tram rail_urban rail rail_electric rail_fast ship container cable_car subway aircraft wheelchair scooter drone" speed="16.67" length="123.92" shape="1739.05,930.77 1751.14,1021.19 1755.47,1053.60"/>
        <lane id="77643459_1" index="1" disallow="tram rail_urban rail rail_electric rail_fast ship container cable_car subway aircraft wheelchair scooter drone" speed="16.67" length="123.92" shape="1742.23,930.35 1754.32,1020.77 1758.64,1053.17"/>
    </edge>
    <edge id="E0" from="J7" to="913534857" priority="-1" spreadType="center">
        <lane id="E0_0" index="0" speed="13.89" length="391.93" shape="2229.57,1043.48 1840.19,1088.19"/>
        <lane id="E0_1" index="1" speed="13.89" length="391.93" shape="2229.93,1046.66 1840.56,1091.37"/>
    </edge>
    <edge id="E11" from="913535671" to="6646088668" priority="-1" spreadType="center">
        <lane id="E11_0" index="0" speed="13.89" length="486.71" shape="1846.51,1115.34 2329.75,1057.35"/>
        <lane id="E11_1" index="1" speed="13.89" length="486.71" shape="1846.13,1112.17 2329.37,1054.17"/>
    </edge>
    <edge id="E13" from="913535348" to="4233042256" priority="-1" spreadType="center">
        <lane id="E13_0" index="0" speed="13.89" length="368.85" shape="1706.49,1104.95 1339.78,1144.60"/>
        <lane id="E13_1" index="1" speed="13.89" length="368.85" shape="1706.84,1108.14 1340.12,1147.78"/>
    </edge>
    <edge id="E15" from="J2" to="913535292" priority="-1" spreadType="center">
        <lane id="E15_0" index="0" speed="13.89" length="439.40" shape="1756.52,1061.49 1814.58,1497.03"/>
        <lane id="E15_1" index="1" speed="13.89" length="439.40" shape="1759.69,1061.07 1817.76,1496.61"/>
    </edge>
    <edge id="E17" from="J5" to="J4" priority="-1" spreadType="center">
        <lane id="E17_0" index="0" speed="13.89" length="397.74" shape="1824.26,1452.36 1771.22,1058.18"/>
        <lane id="E17_1" index="1" speed="13.89" length="397.74" shape="1821.09,1452.79 1768.05,1058.61"/>
    </edge>
    <edge id="E19" from="J3" to="913535792" priority="-1" spreadType="center">
        <lane id="E19_0" index="0" speed="13.89" length="262.09" shape="1832.74,1444.86 1795.61,1185.41"/>
        <lane id="E19_1" index="1" speed="13.89" length="262.09" shape="1829.57,1445.31 1792.44,1185.87"/>
    </edge>
    <edge id="E2" from="913535792" to="913535671" priority="-1">
        <lane id="E2_0" index="0" speed="13.89" length="72.34" shape="1798.55,1178.65 1840.91,1120.01"/>
    </edge>
    <edge id="E20" from="J9" to="J5" priority="-1" spreadType="center">