<routes>

<!-- ROUTES (your file) -->

<route id="r_0" edges="E22 E3 E4"/>
<route id="r_1" edges="E22 171505928#10 171505928#11 77643442#0 E4"/>
<route id="r_2" edges="E22 171505928#10 171505928#11 1492081914 1013996164 E11"/>
<route id="r_3" edges="E22 171505928#10 171505928#11 1492081914 1492081915 1463747346 198065394#0 E13"/>
<route id="r_4" edges="77643459 E6 E13"/>
<route id="r_5" edges="77643459 E15"/>
<route id="r_6" edges="E20 E17 77643383.248"/>
<route id="r_7" edges="E20 E21 E19 1446379669#0 1446379669#1 1492081915 1463747346 198065394#0 E13"/>
<route id="r_8" edges="E20 E21 E19 1446379669#0 1446379669#1 1492081915 1463747346 1013996163 77643442#0 E4"/>
<route id="r_9" edges="E20 E21 E19 E2 E11"/>
<route id="r_10" edges="E0 E7 77643383.248"/>
<route id="r_11" edges="E0 1013996162#0 1013996162#1 1463747346 1013996163 1492081914 1013996164 E11"/>
<route id="r_12" edges="E0 1013996162#0 1013996162#1 1463747346 1013996163 77643442#0 E4"/>
<route id="r_13" edges="E0 1013996162#0 1013996162#1 1463747346 198065394#0 E13"/>
<route id="r_14" edges="E20 E21 E19 1446379669#0 1446379669#1 1492081915 1463747346 1013996163 1492081914 1013996164 E11"/>
<route id="r_15" edges="E22 171505928#10 171505928#11 77643442#0 E4"/>



<!-- EACH ROUTE HAS ALL VEHICLE TYPES -->


<!-- BIKES (dominant) -->
<flow id="bike_r0" route="r_0" type="bike" vehsPerHour="550" begin="0" end="7200"/>
<flow id="bike_r1" route="r_1" type="bike" vehsPerHour="650" begin="0" end="7200"/>
<flow id="bike_r2" route="r_2" type="bike" vehsPerHour="750" begin="0" end="7200"/>
<flow id="bike_r3" route="r_3" type="bike" vehsPerHour="700" begin="0" end="7200"/>
<flow id="bike_r4" route="r_4" type="bike" vehsPerHour="800" begin="0" end="7200"/>
<flow id="bike_r5" route="r_5" type="bike" vehsPerHour="600" begin="0" end="7200"/>
<flow id="bike_r6" route="r_6" type="bike" vehsPerHour="500" begin="0" end="7200"/>
<flow id="bike_r7" route="r_7" type="bike" vehsPerHour="780" begin="0" end="7200"/>
<flow id="bike_r8" route="r_8" type="bike" vehsPerHour="720" begin="0" end="7200"/>
<flow id="bike_r9" route="r_9" type="bike" vehsPerHour="820" begin="0" end="7200"/>
<flow id="bike_r10" route="r_10" type="bike" vehsPerHour="520" begin="0" end="7200"/>
<flow id="bike_r11" route="r_11" type="bike" vehsPerHour="600" begin="0" end="7200"/>
<flow id="bike_r12" route="r_12" type="bike" vehsPerHour="550" begin="0" end="7200"/>
<flow id="bike_r13" route="r_13" type="bike" vehsPerHour="640" begin="0" end="7200"/>
<flow id="bike_r14" route="r_14" type="bike" vehsPerHour="760" begin="0" end="7200"/>
<flow id="bike_r15" route="r_15" type="bike" vehsPerHour="650" begin="0" end="7200"/>



<!-- AUTOS -->
<flow id="auto_r0" route="r_0" type="auto" vehsPerHour="240" begin="0" end="7200"/>
<flow id="auto_r1" route="r_1" type="auto" vehsPerHour="260" begin="0" end="7200"/>
<flow id="auto_r2" route="r_2" type="auto" vehsPerHour="300" begin="0" end="7200"/>
<flow id="auto_r3" route="r_3" type="auto" vehsPerHour="280" begin="0" end="7200"/>
<flow id="auto_r4" route="r_4" type="auto" vehsPerHour="320" begin="0" end="7200"/>
<flow id="auto_r5" route="r_5" type="auto" vehsPerHour="220" begin="0" end="7200"/>
<flow id="auto_r6" route="r_6" type="auto" vehsPerHour="200" begin="0" end="7200"/>
<flow id="auto_r7" route="r_7" type="auto" vehsPerHour="310" begin="0" end="7200"/>
<flow id="auto_r8" route="r_8" type="auto" vehsPerHour="270" begin="0" end="7200"/>
<flow id="auto_r9" route="r_9" type="auto" vehsPerHour="330" begin="0" end="7200"/>
<flow id="auto_r10" route="r_10" type="auto" vehsPerHour="210" begin="0" end="7200"/>
<flow id="auto_r11" route="r_11" type="auto" vehsPerHour="250" begin="0" end="7200"/>
<flow id="auto_r12" route="r_12" type="auto" vehsPerHour="230" begin="0" end="7200"/>
<flow id="auto_r13" route="r_13" type="auto" vehsPerHour="260" begin="0" end="7200"/>
<flow id="auto_r14" route="r_14" type="auto" vehsPerHour="300" begin="0" end="7200"/>
<flow id="auto_r15" route="r_15" type="auto" vehsPerHour="260" begin="0" end="7200"/>



<!-- CARS -->
<flow id="car_r0" route="r_0" type="car" vehsPerHour="260" begin="0" end="7200"/>
<flow id="car_r1" route="r_1" type="car_fast" vehsPerHour="300" begin="0" end="7200"/>
<flow id="car_r2" route="r_2" type="car_fast" vehsPerHour="360" begin="0" end="7200"/>
<flow id="car_r3" route="r_3" type="car" vehsPerHour="320" begin="0" end="7200"/>
<flow id="car_r4" route="r_4" type="car" vehsPerHour="350" begin="0" end="7200"/>
<flow id="car_r5" route="r_5" type="car" vehsPerHour="240" begin="0" end="7200"/>
<flow id="car_r6" route="r_6" type="car" vehsPerHour="210" begin="0" end="7200"/>
<flow id="car_r7" route="r_7" type="car_fast" vehsPerHour="330" begin="0" end="7200"/>
<flow id="car_r8" route="r_8" type="car" vehsPerHour="300" begin="0" end="7200"/>
<flow id="car_r9" route="r_9" type="car_fast" vehsPerHour="370" begin="0" end="7200"/>
<flow id="car_r10" route="r_10" type="car" vehsPerHour="230" begin="0" end="7200"/>
<flow id="car_r11" route="r_11" type="car_fast" vehsPerHour="310" begin="0" end="7200"/>
<flow id="car_r12" route="r_12" type="car" vehsPerHour="280" begin="0" end="7200"/>
<flow id="car_r13" route="r_13" type="car" vehsPerHour="300" begin="0" end="7200"/>
<flow id="car_r14" route="r_14" type="car_fast" vehsPerHour="350" begin="0" end="7200"/>
<flow id="car_r15" route="r_15" type="car" vehsPerHour="290" begin="0" end="7200"/>



<!-- TEMPO -->
<flow id="tempo_r0" route="r_0" type="tempo" period="110" begin="0" end="7200"/>
<flow id="tempo_r1" route="r_1" type="tempo" period="120" begin="0" end="7200"/>
<flow id="tempo_r2" route="r_2" type="tempo" period="90" begin="0" end="7200"/>
<flow id="tempo_r3" route="r_3" type="tempo" period="100" begin="0" end="7200"/>
<flow id="tempo_r4" route="r_4" type="tempo" period="85" begin="0" end="7200"/>
<flow id="tempo_r5" route="r_5" type="tempo" period="140" begin="0" end="7200"/>
<flow id="tempo_r6" route="r_6" type="tempo" period="150" begin="0" end="7200"/>
<flow id="tempo_r7" route="r_7" type="tempo" period="95" begin="0" end="7200"/>
<flow id="tempo_r8" route="r_8" type="tempo" period="105" begin="0" end="7200"/>
<flow id="tempo_r9" route="r_9" type="tempo" period="90" begin="0" end="7200"/>
<flow id="tempo_r10" route="r_10" type="tempo" period="160" begin="0" end="7200"/>
<flow id="tempo_r11" route="r_11" type="tempo" period="120" begin="0" end="7200"/>
<flow id="tempo_r12" route="r_12" type="tempo" period="130" begin="0" end="7200"/>
<flow id="tempo_r13" route="r_13" type="tempo" period="115" begin="0" end="7200"/>
<flow id="tempo_r14" route="r_14" type="tempo" period="95" begin="0" end="7200"/>
<flow id="tempo_r15" route="r_15" type="tempo" period="125" begin="0" end="7200"/>



<!-- BUS -->
<flow id="bus_r0" route="r_0" type="bus" period="240" begin="0" end="7200"/>
<flow id="bus_r1" route="r_1" type="bus" period="260" begin="0" end="7200"/>
<flow id="bus_r2" route="r_2" type="bus" period="200" begin="0" end="7200"/>
<flow id="bus_r3" route="r_3" type="bus" period="220" begin="0" end="7200"/>
<flow id="bus_r4" route="r_4" type="bus" period="180" begin="0" end="7200"/>
<flow id="bus_r5" route="r_5" type="bus" period="300" begin="0" end="7200"/>
<flow id="bus_r6" route="r_6" type="bus" period="320" begin="0" end="7200"/>
<flow id="bus_r7" route="r_7" type="bus" period="210" begin="0" end="7200"/>
<flow id="bus_r8" route="r_8" type="bus" period="230" begin="0" end="7200"/>
<flow id="bus_r9" route="r_9" type="bus" period="190" begin="0" end="7200"/>
<flow id="bus_r10" route="r_10" type="bus" period="350" begin="0" end="7200"/>
<flow id="bus_r11" route="r_11" type="bus" period="250" begin="0" end="7200"/>
<flow id="bus_r12" route="r_12" type="bus" period="260" begin="0" end="7200"/>
<flow id="bus_r13" route="r_13" type="bus" period="240" begin="0" end="7200"/>
<flow id="bus_r14" route="r_14" type="bus" period="210" begin="0" end="7200"/>
<flow id="bus_r15" route="r_15" type="bus" period="260" begin="0" end="7200"/>



<!-- TRUCK -->
<flow id="truck_r0" route="r_0" type="truck" period="320" begin="0" end="7200"/>
<flow id="truck_r1" route="r_1" type="truck" period="350" begin="0" end="7200"/>
<flow id="truck_r2" route="r_2" type="truck" period="280" begin="0" end="7200"/>
<flow id="truck_r3" route="r_3" type="truck" period="300" begin="0" end="7200"/>
<flow id="truck_r4" route="r_4" type="truck" period="260" begin="0" end="7200"/>
<flow id="truck_r5" route="r_5" type="truck" period="420" begin="0" end="7200"/>
<flow id="truck_r6" route="r_6" type="truck" period="450" begin="0" end="7200"/>
<flow id="truck_r7" route="r_7" type="truck" period="290" begin="0" end="7200"/>
<flow id="truck_r8" route="r_8" type="truck" period="310" begin="0" end="7200"/>
<flow id="truck_r9" route="r_9" type="truck" period="270" begin="0" end="7200"/>
<flow id="truck_r10" route="r_10" type="truck" period="480" begin="0" end="7200"/>
<flow id="truck_r11" route="r_11" type="truck" period="340" begin="0" end="7200"/>
<flow id="truck_r12" route="r_12" type="truck" period="360" begin="0" end="7200"/>
<flow id="truck_r13" route="r_13" type="truck" period="330" begin="0" end="7200"/>
<flow id="truck_r14" route="r_14" type="truck" period="290" begin="0" end="7200"/>
<flow id="truck_r15" route="r_15" type="truck" period="350" begin="0" end="7200"/>



<!-- RUSH HOUR (more chaos) -->
<flow id="rush_bikes" route="r_9" type="bike" vehsPerHour="1600" begin="1800" end="3600"/>
<flow id="rush_autos" route="r_14" type="auto" vehsPerHour="700" begin="1800" end="3600"/>
<flow id="rush_cars" route="r_2" type="car_fast" vehsPerHour="900" begin="1800" end="3600"/>


</routes>