<additional>

<tlLogic id="J0" type="static" programID="0">

<phase duration="35" state="GGGGrrrrGGGGrrrr"/>
<phase duration="5" state="yyyyrrrryyyyrrrr"/>

<phase duration="35" state="rrrrGGGGrrrrGGGG"/>
<phase duration="5" state="rrrryyyyrrrryyyy"/>

</tlLogic>

</additional>