<additional>


<!-- ENTRY 1 -->
<tlLogic
id="913535543"
type="static"
programID="peeragarhi_rotary"
offset="0">

<phase duration="180" state="GGGG"/>
<phase duration="6" state="yyyy"/>

<phase duration="360" state="rrrr"/>

</tlLogic>



<!-- ENTRY 2 -->
<tlLogic
id="913535601"
type="static"
programID="peeragarhi_rotary"
offset="180">

<phase duration="180" state="GGGG"/>
<phase duration="6" state="yyyy"/>

<phase duration="360" state="rrrr"/>

</tlLogic>



<!-- ENTRY 3 -->
<tlLogic
id="602468633"
type="static"
programID="peeragarhi_rotary"
offset="360">

<phase duration="180" state="GGGG"/>
<phase duration="6" state="yyyy"/>

<phase duration="360" state="rrrr"/>

</tlLogic>


</additional>