<configuration>

<input>

<net-file value="peeragarhi_clean.net.xml"/>

<route-files value="simulation3.rou.xml"/>

<additional-files value="signals.add.xml,vehicle_types.add.xml"/>

</input>


<time>

<begin value="0"/>

<end value="7200"/>

<step-length value="0.5"/>

</time>


<processing>

<lateral-resolution value="0.25"/>

</processing>

</configuration>