<?xml version="1.0" encoding="UTF-8"?>

<!-- generated on 2026-04-28T22:28:34.452814+05:30 by Eclipse SUMO netconvert 1.26.0
<netconvertConfiguration xmlns:xsi="http://www.w3.org/2001/XMLSchema-instance" xsi:noNamespaceSchemaLocation="http://sumo.dlr.de/xsd/netconvertConfiguration.xsd">

    <input>
        <sumo-net-file value="SBroad.net.xml"/>
    </input>

    <output>
        <output-file value="SBroad1.net.xml"/>
    </output>

    <processing>
        <geometry.min-radius.fix.railways value="false"/>
        <geometry.avoid-overlap value="false"/>
        <geometry.max-grade.fix value="false"/>
        <offset.disable-normalization value="true"/>
        <lefthand value="1"/>
    </processing>

    <tls_building>
        <tls.guess value="true"/>
    </tls_building>

    <junctions>
        <no-turnarounds value="true"/>
        <junctions.corner-detail value="5"/>
        <junctions.limit-turn-speed value="5.50"/>
        <rectangular-lane-cut value="0"/>
    </junctions>

    <pedestrian>
        <walkingareas value="0"/>
    </pedestrian>

</netconvertConfiguration>
-->

<net version="1.20" junctionCornerDetail="5" lefthand="true" limitTurnSpeed="5.50" avoidOverlap="0" xmlns:xsi="http://www.w3.org/2001/XMLSchema-instance" xsi:noNamespaceSchemaLocation="http://sumo.dlr.de/xsd/net_file.xsd">

    <location netOffset="100.00,100.00" convBoundary="0.00,0.00,200.00,200.00" origBoundary="-100.00,-100.00,100.00,100.00" projParameter="!"/>

    <edge id=":center_0" function="internal">
        <lane id=":center_0_0" index="0" speed="6.51" length="9.03" shape="88.80,89.60 88.45,92.05 87.40,93.80 85.65,94.85 83.20,95.20"/>
    </edge>
    <edge id=":center_1" function="internal">
        <lane id=":center_1_0" index="0" speed="13.89" length="20.80" shape="88.80,89.60 88.80,110.40"/>
        <lane id=":center_1_1" index="1" speed="13.89" length="20.80" shape="92.00,89.60 92.00,110.40"/>
        <lane id=":center_1_2" index="2" speed="13.89" length="20.80" shape="95.20,89.60 95.20,110.40"/>
    </edge>
    <edge id=":center_4" function="internal">
        <lane id=":center_4_0" index="0" speed="10.96" length="12.46" shape="95.20,89.60 96.55,94.85 100.60,98.60 102.04,99.08"/>
    </edge>
    <edge id=":center_5" function="internal">
        <lane id=":center_5_0" index="0" speed="5.58" length="10.63" shape="95.20,89.60 97.60,93.20 100.00,94.40 102.40,93.20 102.92,92.42"/>
    </edge>
    <edge id=":center_22" function="internal">
        <lane id=":center_22_0" index="0" speed="10.96" length="15.07" shape="102.04,99.08 107.35,100.85 116.80,101.60"/>
    </edge>
    <edge id=":center_23" function="internal">
        <lane id=":center_23_0" index="0" speed="5.58" length="3.39" shape="102.92,92.42 104.80,89.60"/>
    </edge>
    <edge id=":center_6" function="internal">
        <lane id=":center_6_0" index="0" speed="6.51" length="9.03" shape="116.80,95.20 114.35,94.85 112.60,93.80 111.55,92.05 111.20,89.60"/>
    </edge>
    <edge id=":center_7" function="internal">
        <lane id=":center_7_0" index="0" speed="13.89" length="33.60" shape="116.80,95.20 83.20,95.20"/>
        <lane id=":center_7_1" index="1" speed="13.89" length="33.60" shape="116.80,98.40 83.20,98.40"/>
    </edge>
    <edge id=":center_9" function="internal">
        <lane id=":center_9_0" index="0" speed="10.96" length="8.88" shape="116.80,98.40 107.94,99.10"/>
    </edge>
    <edge id=":center_10" function="internal">
        <lane id=":center_10_0" index="0" speed="3.65" length="1.44" shape="116.80,98.40 115.60,99.20"/>
    </edge>
    <edge id=":center_24" function="internal">
        <lane id=":center_24_0" index="0" speed="10.96" length="18.65" shape="107.94,99.10 107.35,99.15 100.60,101.40 96.55,105.15 95.20,110.40"/>
    </edge>
    <edge id=":center_25" function="internal">
        <lane id=":center_25_0" index="0" speed="3.65" length="3.23" shape="115.60,99.20 115.20,100.00 115.60,100.80 116.80,101.60"/>
    </edge>
    <edge id=":center_11" function="internal">
        <lane id=":center_11_0" index="0" speed="6.51" length="9.03" shape="111.20,110.40 111.55,107.95 112.60,106.20 114.35,105.15 116.80,104.80"/>
    </edge>
    <edge id=":center_12" function="internal">
        <lane id=":center_12_0" index="0" speed="13.89" length="20.80" shape="111.20,110.40 111.20,89.60"/>
        <lane id=":center_12_1" index="1" speed="13.89" length="20.80" shape="108.00,110.40 108.00,89.60"/>
        <lane id=":center_12_2" index="2" speed="13.89" length="20.80" shape="104.80,110.40 104.80,89.60"/>
    </edge>
    <edge id=":center_15" function="internal">
        <lane id=":center_15_0" index="0" speed="10.96" length="12.46" shape="104.80,110.40 103.45,105.15 99.40,101.40 97.96,100.92"/>
    </edge>
    <edge id=":center_16" function="internal">
        <lane id=":center_16_0" index="0" speed="5.58" length="10.63" shape="104.80,110.40 102.40,106.80 100.00,105.60 97.60,106.80 97.08,107.58"/>
    </edge>
    <edge id=":center_26" function="internal">
        <lane id=":center_26_0" index="0" speed="10.96" length="15.07" shape="97.96,100.92 92.65,99.15 83.20,98.40"/>
    </edge>
    <edge id=":center_27" function="internal">
        <lane id=":center_27_0" index="0" speed="5.58" length="3.39" shape="97.08,107.58 95.20,110.40"/>
    </edge>
    <edge id=":center_17" function="internal">
        <lane id=":center_17_0" index="0" speed="6.51" length="9.03" shape="83.20,104.80 85.65,105.15 87.40,106.20 88.45,107.95 88.80,110.40"/>
    </edge>
    <edge id=":center_18" function="internal">
        <lane id=":center_18_0" index="0" speed="13.89" length="33.60" shape="83.20,104.80 116.80,104.80"/>
        <lane id=":center_18_1" index="1" speed="13.89" length="33.60" shape="83.20,101.60 116.80,101.60"/>
    </edge>
    <edge id=":center_20" function="internal">
        <lane id=":center_20_0" index="0" speed="10.96" length="8.88" shape="83.20,101.60 92.06,100.90"/>
    </edge>
    <edge id=":center_21" function="internal">
        <lane id=":center_21_0" index="0" speed="3.65" length="1.44" shape="83.20,101.60 84.40,100.80"/>
    </edge>
    <edge id=":center_28" function="internal">
        <lane id=":center_28_0" index="0" speed="10.96" length="18.65" shape="92.06,100.90 92.65,100.85 99.40,98.60 103.45,94.85 104.80,89.60"/>
    </edge>
    <edge id=":center_29" function="internal">
        <lane id=":center_29_0" index="0" speed="3.65" length="3.23" shape="84.40,100.80 84.80,100.00 84.40,99.20 83.20,98.40"/>
    </edge>
    <edge id=":east_0" function="internal">
        <lane id=":east_0_0" index="0" speed="3.65" length="4.67" shape="200.00,101.60 201.20,100.80 201.60,100.00 201.20,99.20 200.00,98.40"/>
    </edge>
    <edge id=":north_0" function="internal">
        <lane id=":north_0_0" index="0" speed="5.58" length="14.02" shape="95.20,200.00 97.60,203.60 100.00,204.80 102.40,203.60 104.80,200.00"/>
    </edge>
    <edge id=":south_0" function="internal">
        <lane id=":south_0_0" index="0" speed="5.58" length="14.02" shape="104.80,-0.00 102.40,-3.60 100.00,-4.80 97.60,-3.60 95.20,-0.00"/>
    </edge>
    <edge id=":west_0" function="internal">
        <lane id=":west_0_0" index="0" speed="3.65" length="4.67" shape="0.00,98.40 -1.20,99.20 -1.60,100.00 -1.20,100.80 0.00,101.60"/>
    </edge>

    <edge id="e_in" from="east" to="center" priority="-1">
        <lane id="e_in_0" index="0" speed="13.89" length="83.20" shape="200.00,95.20 116.80,95.20"/>
        <lane id="e_in_1" index="1" speed="13.89" length="83.20" shape="200.00,98.40 116.80,98.40"/>
    </edge>
    <edge id="e_out" from="center" to="east" priority="-1">
        <lane id="e_out_0" index="0" speed="13.89" length="83.20" shape="116.80,104.80 200.00,104.80"/>
        <lane id="e_out_1" index="1" speed="13.89" length="83.20" shape="116.80,101.60 200.00,101.60"/>
    </edge>
    <edge id="n_in" from="north" to="center" priority="-1">
        <lane id="n_in_0" index="0" speed="13.89" length="89.60" shape="111.20,200.00 111.20,110.40"/>
        <lane id="n_in_1" index="1" speed="13.89" length="89.60" shape="108.00,200.00 108.00,110.40"/>
        <lane id="n_in_2" index="2" speed="13.89" length="89.60" shape="104.80,200.00 104.80,110.40"/>
        <lane id="n_in_3" index="3" speed="13.89" length="89.60" shape="101.60,200.00 101.60,110.40"/>
    </edge>
    <edge id="n_out" from="center" to="north" priority="-1">
        <lane id="n_out_0" index="0" speed="13.89" length="89.60" shape="88.80,110.40 88.80,200.00"/>
        <lane id="n_out_1" index="1" speed="13.89" length="89.60" shape="92.00,110.40 92.00,200.00"/>
        <lane id="n_out_2" index="2" speed="13.89" length="89.60" shape="95.20,110.40 95.20,200.00"/>
        <lane id="n_out_3" index="3" speed="13.89" length="89.60" shape="98.40,110.40 98.40,200.00"/>
    </edge>
    <edge id="s_in" from="south" to="center" priority="-1">
        <lane id="s_in_0" index="0" speed="13.89" length="89.60" shape="88.80,0.00 88.80,89.60"/>
        <lane id="s_in_1" index="1" speed="13.89" length="89.60" shape="92.00,0.00 92.00,89.60"/>
        <lane id="s_in_2" index="2" speed="13.89" length="89.60" shape="95.20,0.00 95.20,89.60"/>
        <lane id="s_in_3" index="3" speed="13.89" length="89.60" shape="98.40,0.00 98.40,89.60"/>
    </edge>
    <edge id="s_out" from="center" to="south" priority="-1">
        <lane id="s_out_0" index="0" speed="13.89" length="89.60" shape="111.20,89.60 111.20,0.00"/>
        <lane id="s_out_1" index="1" speed="13.89" length="89.60" shape="108.00,89.60 108.00,0.00"/>
        <lane id="s_out_2" index="2" speed="13.89" length="89.60" shape="104.80,89.60 104.80,0.00"/>
        <lane id="s_out_3" index="3" speed="13.89" length="89.60" shape="101.60,89.60 101.60,0.00"/>
    </edge>
    <edge id="w_in" from="west" to="center" priority="-1">
        <lane id="w_in_0" index="0" speed="13.89" length="83.20" shape="0.00,104.80 83.20,104.80"/>
        <lane id="w_in_1" index="1" speed="13.89" length="83.20" shape="0.00,101.60 83.20,101.60"/>
    </edge>
    <edge id="w_out" from="center" to="west" priority="-1">
        <lane id="w_out_0" index="0" speed="13.89" length="83.20" shape="83.20,95.20 0.00,95.20"/>
        <lane id="w_out_1" index="1" speed="13.89" length="83.20" shape="83.20,98.40 0.00,98.40"/>
    </edge>

    <tlLogic id="center" type="static" programID="0" offset="0">
        <phase duration="42" state="GGGGggrrrrrGGGGggrrrrr"/>
        <phase duration="5"  state="yyyyyyrrrrryyyyyyrrrrr"/>
        <phase duration="42" state="rrrrrrGGGggrrrrrrGGGgg"/>
        <phase duration="5"  state="rrrrrryyyyyrrrrrryyyyy"/>
    </tlLogic>

    <junction id="center" type="traffic_light" x="100.00" y="100.00" incLanes="s_in_0 s_in_1 s_in_2 s_in_3 e_in_0 e_in_1 n_in_0 n_in_1 n_in_2 n_in_3 w_in_0 w_in_1" intLanes=":center_0_0 :center_1_0 :center_1_1 :center_1_2 :center_22_0 :center_23_0 :center_6_0 :center_7_0 :center_7_1 :center_24_0 :center_25_0 :center_11_0 :center_12_0 :center_12_1 :center_12_2 :center_26_0 :center_27_0 :center_17_0 :center_18_0 :center_18_1 :center_28_0 :center_29_0" shape="87.20,89.60 112.80,89.60 113.24,91.82 113.80,92.60 114.58,93.16 115.58,93.49 116.80,93.60 116.80,106.40 114.58,106.84 113.80,107.40 113.24,108.18 112.91,109.18 112.80,110.40 87.20,110.40 86.76,108.18 86.20,107.40 85.42,106.84 84.42,106.51 83.20,106.40 83.20,93.60 85.42,93.16 86.20,92.60 86.76,91.82 87.09,90.82">
        <request index="0"  response="0000000000000000000000" foes="0000000000000110000000" cont="0"/>
        <request index="1"  response="0100000000000000000000" foes="0111111000001110000000" cont="0"/>
        <request index="2"  response="0100000000000000000000" foes="0111111000001110000000" cont="0"/>
        <request index="3"  response="0100000000001000000000" foes="0111111000001110000000" cont="0"/>
        <request index="4"  response="0100000111001000000000" foes="0111000111011110000000" cont="1"/>
        <request index="5"  response="0100000111000000000000" foes="0100000111000000000000" cont="1"/>
        <request index="6"  response="0000000111000000000000" foes="0000000111000000000000" cont="0"/>
        <request index="7"  response="0000001111000000011111" foes="1100001111000000011111" cont="0"/>
        <request index="8"  response="0000001111000000011111" foes="1100001111000000011111" cont="0"/>
        <request index="9"  response="0011001111000000011110" foes="0011011111000000011110" cont="1"/>
        <request index="10" response="0011000000000000010000" foes="0011000000000000010000" cont="1"/>
        <request index="11" response="0000000000000000000000" foes="0011000000000000000000" cont="0"/>
        <request index="12" response="0000000000001000000000" foes="0111000000001111110000" cont="0"/>
        <request index="13" response="0000000000001000000000" foes="0111000000001111110000" cont="0"/>
        <request index="14" response="0100000000001000000000" foes="0111000000001111110000" cont="0"/>
        <request index="15" response="0100000000001000001110" foes="1111000000001110001110" cont="1"/>
        <request index="16" response="0000000000001000001110" foes="0000000000001000001110" cont="1"/>
        <request index="17" response="0000000000000000001110" foes="0000000000000000001110" cont="0"/>
        <request index="18" response="0000001111100000011110" foes="0000001111111000011110" cont="0"/>
        <request index="19" response="0000001111100000011110" foes="0000001111111000011110" cont="0"/>
        <request index="20" response="0000001111000110011110" foes="0000001111000110111110" cont="1"/>
        <request index="21" response="0000001000000110000000" foes="0000001000000110000000" cont="1"/>
    </junction>
    <junction id="east" type="priority" x="200.00" y="100.00" incLanes="e_out_0 e_out_1" intLanes=":east_0_0" shape="200.00,100.00 200.00,106.40 200.00,100.00">
        <request index="0" response="0" foes="0" cont="0"/>
    </junction>
    <junction id="north" type="priority" x="100.00" y="200.00" incLanes="n_out_0 n_out_1 n_out_2 n_out_3" intLanes=":north_0_0" shape="100.00,200.00 87.20,200.00 100.00,200.00">
        <request index="0" response="0" foes="0" cont="0"/>
    </junction>
    <junction id="south" type="priority" x="100.00" y="0.00" incLanes="s_out_0 s_out_1 s_out_2 s_out_3" intLanes=":south_0_0" shape="100.00,-0.00 112.80,-0.00 100.00,-0.00">
        <request index="0" response="0" foes="0" cont="0"/>
    </junction>
    <junction id="west" type="priority" x="0.00" y="100.00" incLanes="w_out_0 w_out_1" intLanes=":west_0_0" shape="0.00,100.00 0.00,93.60 0.00,100.00">
        <request index="0" response="0" foes="0" cont="0"/>
    </junction>

    <junction id=":center_22_0" type="internal" x="102.04" y="99.08" incLanes=":center_4_0 n_in_0 n_in_1 n_in_2" intLanes=":center_7_0 :center_7_1 :center_9_0 :center_10_0 :center_11_0 :center_12_0 :center_12_1 :center_12_2 :center_18_0 :center_18_1 :center_20_0"/>
    <junction id=":center_23_0" type="internal" x="102.92" y="92.42" incLanes=":center_5_0 e_in_0 n_in_0 n_in_1 n_in_2 w_in_1" intLanes=":center_6_0 :center_12_0 :center_12_1 :center_12_2 :center_20_0"/>
    <junction id=":center_24_0" type="internal" x="107.94" y="99.10" incLanes=":center_9_0 w_in_0 w_in_1" intLanes=":center_1_0 :center_1_1 :center_1_2 :center_4_0 :center_12_0 :center_12_1 :center_12_2 :center_15_0 :center_16_0 :center_17_0 :center_18_0 :center_18_1"/>
    <junction id=":center_25_0" type="internal" x="115.60" y="99.20" incLanes=":center_10_0 n_in_0 s_in_2 w_in_0 w_in_1" intLanes=":center_4_0 :center_11_0 :center_18_0 :center_18_1"/>
    <junction id=":center_26_0" type="internal" x="97.96" y="100.92" incLanes=":center_15_0 s_in_0 s_in_1 s_in_2" intLanes=":center_0_0 :center_1_0 :center_1_1 :center_1_2 :center_7_0 :center_7_1 :center_9_0 :center_18_0 :center_18_1 :center_20_0 :center_21_0"/>
    <junction id=":center_27_0" type="internal" x="97.08" y="107.58" incLanes=":center_16_0 e_in_1 s_in_0 s_in_1 s_in_2 w_in_0" intLanes=":center_1_0 :center_1_1 :center_1_2 :center_9_0 :center_17_0"/>
    <junction id=":center_28_0" type="internal" x="92.06" y="100.90" incLanes=":center_20_0 e_in_0 e_in_1" intLanes=":center_1_0 :center_1_1 :center_1_2 :center_4_0 :center_5_0 :center_6_0 :center_7_0 :center_7_1 :center_12_0 :center_12_1 :center_12_2 :center_15_0"/>
    <junction id=":center_29_0" type="internal" x="84.40" y="100.80" incLanes=":center_21_0 e_in_0 e_in_1 n_in_2 s_in_0" intLanes=":center_0_0 :center_7_0 :center_7_1 :center_15_0"/>

    <connection from="e_in" to="s_out" fromLane="0" toLane="0" via=":center_6_0" tl="center" linkIndex="6" dir="l" state="o"/>
    <connection from="e_in" to="w_out" fromLane="0" toLane="0" via=":center_7_0" tl="center" linkIndex="7" dir="s" state="o"/>
    <connection from="e_in" to="w_out" fromLane="1" toLane="1" via=":center_7_1" tl="center" linkIndex="8" dir="s" state="o"/>
    <connection from="e_in" to="n_out" fromLane="1" toLane="2" via=":center_9_0" tl="center" linkIndex="9" dir="r" state="o"/>
    <connection from="e_in" to="e_out" fromLane="1" toLane="1" via=":center_10_0" tl="center" linkIndex="10" dir="T" state="o"/>
    <connection from="e_out" to="e_in" fromLane="1" toLane="1" via=":east_0_0" dir="T" state="M"/>
    <connection from="n_in" to="e_out" fromLane="0" toLane="0" via=":center_11_0" tl="center" linkIndex="11" dir="l" state="O"/>
    <connection from="n_in" to="s_out" fromLane="0" toLane="0" via=":center_12_0" tl="center" linkIndex="12" dir="s" state="O"/>
    <connection from="n_in" to="s_out" fromLane="1" toLane="1" via=":center_12_1" tl="center" linkIndex="13" dir="s" state="O"/>
    <connection from="n_in" to="s_out" fromLane="2" toLane="2" via=":center_12_2" tl="center" linkIndex="14" dir="s" state="O"/>
    <connection from="n_in" to="w_out" fromLane="2" toLane="1" via=":center_15_0" tl="center" linkIndex="15" dir="r" state="o"/>
    <connection from="n_in" to="n_out" fromLane="2" toLane="2" via=":center_16_0" tl="center" linkIndex="16" dir="T" state="o"/>
    <connection from="n_out" to="n_in" fromLane="2" toLane="2" via=":north_0_0" dir="T" state="M"/>
    <connection from="s_in" to="w_out" fromLane="0" toLane="0" via=":center_0_0" tl="center" linkIndex="0" dir="l" state="O"/>
    <connection from="s_in" to="n_out" fromLane="0" toLane="0" via=":center_1_0" tl="center" linkIndex="1" dir="s" state="O"/>
    <connection from="s_in" to="n_out" fromLane="1" toLane="1" via=":center_1_1" tl="center" linkIndex="2" dir="s" state="O"/>
    <connection from="s_in" to="n_out" fromLane="2" toLane="2" via=":center_1_2" tl="center" linkIndex="3" dir="s" state="O"/>
    <connection from="s_in" to="e_out" fromLane="2" toLane="1" via=":center_4_0" tl="center" linkIndex="4" dir="r" state="o"/>
    <connection from="s_in" to="s_out" fromLane="2" toLane="2" via=":center_5_0" tl="center" linkIndex="5" dir="T" state="o"/>
    <connection from="s_out" to="s_in" fromLane="2" toLane="2" via=":south_0_0" dir="T" state="M"/>
    <connection from="w_in" to="n_out" fromLane="0" toLane="0" via=":center_17_0" tl="center" linkIndex="17" dir="l" state="o"/>
    <connection from="w_in" to="e_out" fromLane="0" toLane="0" via=":center_18_0" tl="center" linkIndex="18" dir="s" state="o"/>
    <connection from="w_in" to="e_out" fromLane="1" toLane="1" via=":center_18_1" tl="center" linkIndex="19" dir="s" state="o"/>
    <connection from="w_in" to="s_out" fromLane="1" toLane="2" via=":center_20_0" tl="center" linkIndex="20" dir="r" state="o"/>
    <connection from="w_in" to="w_out" fromLane="1" toLane="1" via=":center_21_0" tl="center" linkIndex="21" dir="T" state="o"/>
    <connection from="w_out" to="w_in" fromLane="1" toLane="1" via=":west_0_0" dir="T" state="M"/>

    <connection from=":center_0" to="w_out" fromLane="0" toLane="0" dir="l" state="M"/>
    <connection from=":center_1" to="n_out" fromLane="0" toLane="0" dir="s" state="M"/>
    <connection from=":center_1" to="n_out" fromLane="1" toLane="1" dir="s" state="M"/>
    <connection from=":center_1" to="n_out" fromLane="2" toLane="2" dir="s" state="M"/>
    <connection from=":center_4" to="e_out" fromLane="0" toLane="1" via=":center_22_0" dir="r" state="m"/>
    <connection from=":center_22" to="e_out" fromLane="0" toLane="1" dir="r" state="M"/>
    <connection from=":center_5" to="s_out" fromLane="0" toLane="2" via=":center_23_0" dir="T" state="m"/>
    <connection from=":center_23" to="s_out" fromLane="0" toLane="2" dir="T" state="M"/>
    <connection from=":center_6" to="s_out" fromLane="0" toLane="0" dir="l" state="M"/>
    <connection from=":center_7" to="w_out" fromLane="0" toLane="0" dir="s" state="M"/>
    <connection from=":center_7" to="w_out" fromLane="1" toLane="1" dir="s" state="M"/>
    <connection from=":center_9" to="n_out" fromLane="0" toLane="2" via=":center_24_0" dir="r" state="m"/>
    <connection from=":center_24" to="n_out" fromLane="0" toLane="2" dir="r" state="M"/>
    <connection from=":center_10" to="e_out" fromLane="0" toLane="1" via=":center_25_0" dir="T" state="m"/>
    <connection from=":center_25" to="e_out" fromLane="0" toLane="1" dir="T" state="M"/>
    <connection from=":center_11" to="e_out" fromLane="0" toLane="0" dir="l" state="M"/>
    <connection from=":center_12" to="s_out" fromLane="0" toLane="0" dir="s" state="M"/>
    <connection from=":center_12" to="s_out" fromLane="1" toLane="1" dir="s" state="M"/>
    <connection from=":center_12" to="s_out" fromLane="2" toLane="2" dir="s" state="M"/>
    <connection from=":center_15" to="w_out" fromLane="0" toLane="1" via=":center_26_0" dir="r" state="m"/>
    <connection from=":center_26" to="w_out" fromLane="0" toLane="1" dir="r" state="M"/>
    <connection from=":center_16" to="n_out" fromLane="0" toLane="2" via=":center_27_0" dir="T" state="m"/>
    <connection from=":center_27" to="n_out" fromLane="0" toLane="2" dir="T" state="M"/>
    <connection from=":center_17" to="n_out" fromLane="0" toLane="0" dir="l" state="M"/>
    <connection from=":center_18" to="e_out" fromLane="0" toLane="0" dir="s" state="M"/>
    <connection from=":center_18" to="e_out" fromLane="1" toLane="1" dir="s" state="M"/>
    <connection from=":center_20" to="s_out" fromLane="0" toLane="2" via=":center_28_0" dir="r" state="m"/>
    <connection from=":center_28" to="s_out" fromLane="0" toLane="2" dir="r" state="M"/>
    <connection from=":center_21" to="w_out" fromLane="0" toLane="1" via=":center_29_0" dir="T" state="m"/>
    <connection from=":center_29" to="w_out" fromLane="0" toLane="1" dir="T" state="M"/>
    <connection from=":east_0" to="e_in" fromLane="0" toLane="1" dir="T" state="M"/>
    <connection from=":north_0" to="n_in" fromLane="0" toLane="2" dir="T" state="M"/>
    <connection from=":south_0" to="s_in" fromLane="0" toLane="2" dir="T" state="M"/>
    <connection from=":west_0" to="w_in" fromLane="0" toLane="1" dir="T" state="M"/>

</net>
