<configuration>
    <input>
        <net-file value="digital_twin.net.xml"/>
        <route-files value="digital_twin.rou.xml"/>
        <additional-files value="vehicle_types.add.xml"/>
    </input>

    <time>
        <begin value="0"/>
        <end value="100000"/>
        <step-length value="1"/>
    </time>
</configuration>